
**** 03/23/18 09:07:36 ********* PSpice 9.2 (Mar 2000) ******** ID# 1 ********

 ** Profile: "SCHEMATIC1-timetrans1"  [ D:\Radio\Devices\PS3604L\OrCad\outamp\outamp-SCHEMATIC1-timetrans1.sim ] 


 ****     CIRCUIT DESCRIPTION


******************************************************************************




** Creating circuit file "outamp-SCHEMATIC1-timetrans1.sim.cir" 
** WARNING: THIS AUTOMATICALLY GENERATED FILE MAY BE OVERWRITTEN BY SUBSEQUENT SIMULATIONS

*Libraries: 
* Local Libraries :
* From [PSPICE NETLIST] section of c:\programfiles\Orcad\PSpice\PSpice.ini file:
.lib "C:\ProgramFiles\Orcad\Capture\Library\PSpice\nom.lib" 
.inc "C:\ProgramFiles\Orcad\Capture\Library\PSpice\nom.lib" 

*Analysis directives: 

**** INCLUDING nom.lib ****
* Library of standard devices: Analog and Digital

*  Copyright Cadence Design Systems, Inc. 2000 All Rights Reserved.
*
*
* $Revision:   1.3  $
* $Author:   HIRASUNA  $
* $Date:   11 May 2000 13:26:32  $

* This "master library" file calls out the other libraries which we supply.
* It takes time for PSpice to scan each library file.  PSpice creates an
* index file, called <filename>.IND, to speed up the search process.
* The index file is re-created whenever PSpice senses that it might be invalid.

* If the library search times are too long, you may want to "comment out"
* references to device libraries which you are not using.  Also, you can always
* bypass the library approach and simply copy the model or subcircuit which you
* need directly into your circuit file.

* utility subcircuits and models 

.lib "breakout.lib"             ; generic devices for schematic capture
.lib "filtsub.lib"              ; Filter biquad stages and LC ladder branches
.lib "tline.lib"                ; transmission line models and subcircuits

* "regular" device libraries

.lib "nom_dig.lib"              ; Digital (logic) devices - Requires "Digital Simulation"

.lib "1_shot.lib"               ; Monostable Multivibrators
.lib "ana_swit.lib"             ; Analog Switches
.lib "anl_misc.lib"             ; Miscellaneous circuits
.lib "bipolar.lib"              ; Bipolar transistors
.lib "dc_prim.lib"              ; Primitive models for DAC & ADC Schematic models
.lib "diode.lib"                ; Diodes
.lib "darlngtn.lib"             ; Darlington transistors
.lib "igbt.lib"                 ; IGBT transistors
.lib "jfet.lib"                 ; JFET transistors
.lib "linedriv.lib"             ; Line Drivers, Receivers and Transceivers
.lib "opamp.lib"                ; Linear ICs: op-amps, voltage comparators,
                                ; and voltage regulators
.lib "magnetic.lib"             ; Non-linear transformer cores
.lib "mix_misc.lib"             ; Miscellaneous circuits
.lib "opto.lib"                 ; Optocouplers
.lib "pwrbjt.lib"               ; Power bipolar transistors (BJTs)
.lib "pwrmos.lib"               ; Power MOSFETs
.lib "xtal.lib"                 ; Quartz crystals
.lib "thyristr.lib"             ; Thyristors - Requires "Analog Behavioral Modeling"
.lib "swit_rav.lib"             ; Average power supply models
.lib "swit_reg.lib"             ; Switchmode regulator controller models

* manufacturer's contributions

.lib "vendor.lib"               ; Vendor supplied analog models

* Japanese and European libraries

* The following library files are installed if/when you choose to load 
* the Japanese and/or European part libraries during installation.  Since 
* there is no guarantee that the user will elect to install these library 
* files, we have commented out these references so as not to cause a 
* "Cannot find library" error in PSpice.  Please remove the "*" preceding the 
* .lib reference to the library file(s) which you have installed.  
* Please note that once you have edited this library file, PSpice will 
* recreate the index file the first time [only] it is used.  Depending on 
* the size of the library file, this process can take some time.


.lib "japan.lib"              ; Japanese diodes, rectifiers, zeners,
                               ; varactors, Schottky diodes, BJTs,
                               ; JFETs, power BJTs, power MOSFETs, opamps.

.lib "europe.lib"             ; European parts


* end of library file

**** RESUMING outamp-SCHEMATIC1-timetrans1.sim.cir ****
.TRAN  0 200us 0 
.PROBE V(*) I(*) W(*) D(*) NOISE(*) 
.INC ".\outamp-SCHEMATIC1.net" 



**** INCLUDING outamp-SCHEMATIC1.net ****
* source OUTAMP
V_VCC6         VG 0 56Vdc
V_VCC1         3_3V 0 3.3Vdc
R_R17         OUT_NEG 0  0.082  
X_S1    0 0 OUT_NEG N60803 SCHEMATIC1_S1 
R_R34         N531164 0  1k  
R_R15         0 N43914  100k  
R_R19         N43898 0  1k  
R_R1         N07172 VG  5k  
D_D7         N24798 N27962 D1N4149 
V_VCC4         V3 0 30Vdc
C_C1         N07172 N06299  100p   
R_R64         N60803 OUT_POS  5  
R_R25         N43902 0  10k  
R_R2         N06834 N07172  100  
R_R22         N08478 N13824  2.2k  
R_R11         OUT_POS OUT_NEG  40  
D_D5         N24798 N27737 D1N4149 
R_R13         0 N15493  10k  
M_M2         N14863 N26838 N26922 N26922 IRF510
R_R5         N22751 N14863  2.2k  
M_M4         N27743 N27962 OUT_POS OUT_POS IRF510
X_U1         V_SET N13824 3_3V 0 N06335 AD8608/AD 
X_U5         N43914 N43902 3_3V 0 N43898 AD8608/AD 
R_R10         N30946 N07172  1  
U_DSTM3         STIM(1,1) $G_DPWR $G_DGND L_MOD IO_STM IO_LEVEL=0 
+ 0 0
+ +50u 1
+REPEAT FOREVER
+ +50u 0
+  +50u 1
+ ENDREPEAT
V_VCC7         I_SET 0 3Vdc
V_V1         V_SET 0  
+PULSE 0 2 10us 1us 1us 60000us 10000us
R_R24         N08478 N15415  10k  
X_U25         N06335 N48676 3_3V M_UN0001 N531164 AD8608/AD 
R_R53         0 OUT_POS  4.7k  
R_R8         N27737 N27743  2.2k  
Q_Q5         N07172 N06299 N48676 QBC847/PLP 
R_R12         N15493 OUT_POS  120k  
R_R23         N15415 OUT_NEG  120k  
V_VCC3         V2 0 20Vdc
Q_Q2         N35884 N35328 VG QBC856/PLP 
X_D4         V2 N26922 BY249-300 
X_U3         I_SET N48888 3_3V 0 N48676 AD8608/AD 
R_R6         N26838 N26922  2.2k  
R_R21         N43898 N48888  2.2k  
Q_Q4         N07172 N06299 N06335 QBC847/PLP 
R_R26         N43898 N43902  100k  
R_R3         0 N35328  20k  
R_R9         N27962 OUT_POS  2.2k  
C_C2         N13824 N30946  300p   
X_D2         V3 N14863 BY249-300 
X_D6         V1 N27743 BY249-300 
R_R4         0 N35884  20k  
D_D3         N24798 N26838 D1N4149 
M_M1         V4 N22751 N14863 N14863 IRF510
M_M3         N26922 N27737 N27743 N27743 IRF510
R_R20         N48658 N07172  1  
V_VCC5         V4 0 40Vdc
D_D1         N24798 N22751 D1N4149 
C_C4         N48888 N48658  100p   
Q_Q3         VG N06834 N24798 QBC847/PLP 
Q_Q1         N35328 N35328 VG QBC856/PLP 
V_VCC2         V1 0 10Vdc
R_R18         N08478 0  1k  
R_R14         N43914 OUT_NEG  10k  
X_U4         N15493 N15415 3_3V 0 N08478 AD8608/AD 
C_C3         OUT_NEG OUT_POS  1u   
R_R7         N06299 3_3V  2.2k  

.subckt SCHEMATIC1_S1 1 2 3 4  
S_S1         3 4 1 2 _S1
RS_S1         1 2 1G
.MODEL         _S1 VSWITCH Roff=1e6 Ron=1.0 Voff=0.0V Von=1.0V
.ends SCHEMATIC1_S1

**** RESUMING outamp-SCHEMATIC1-timetrans1.sim.cir ****
.END

**** 03/23/18 09:07:36 ********* PSpice 9.2 (Mar 2000) ******** ID# 1 ********

 ** Profile: "SCHEMATIC1-timetrans1"  [ D:\Radio\Devices\PS3604L\OrCad\outamp\outamp-SCHEMATIC1-timetrans1.sim ] 


 ****     Diode MODEL PARAMETERS


******************************************************************************




               D1N4149         X_U1.DX         X_U5.DX         X_U25.DX        
          IS    2.682000E-09   10.000000E-15   10.000000E-15   10.000000E-15 
           N    1.836                                                        
         ISR    1.565000E-09                                                 
         IKF     .04417                                                      
          BV  100                                                            
         IBV  100.000000E-06                                                 
          RS     .5664          5               5               5            
          TT   11.540000E-09                                                 
         CJO    2.000000E-12                                                 
          VJ     .5                                                          
           M     .3333                                                       


               X_D4.DFWD       X_D4.DXTRA      X_U3.DX         X_D2.DFWD       
          IS   17.266270E-12    2.556412E-12   10.000000E-15   17.266270E-12 
           N    1.88563         1.24864                         1.88563      
         ISR   66.243680E-06                                   66.243680E-06 
          NR    2.63527                                         2.63527      
         IKF     .999979        2.550860E-03                     .999979     
          BV  330.0845        100.000000E+03                  330.0845       
         IBV     .25878         1.000000E-03                     .25878      
          RS     .021995        4.959919E-03    5                .021995     
          TT  216.400000E-09                                  216.400000E-09 
         CJO  117.720000E-12                                  117.720000E-12 
          VJ     .53537                                          .53537      
           M     .25488                                          .25488      


               X_D2.DXTRA      X_D6.DFWD       X_D6.DXTRA      X_U4.DX         
          IS    2.556412E-12   17.266270E-12    2.556412E-12   10.000000E-15 
           N    1.24864         1.88563         1.24864                      
         ISR                   66.243680E-06                                 
          NR                    2.63527                                      
         IKF    2.550860E-03     .999979        2.550860E-03                 
          BV  100.000000E+03  330.0845        100.000000E+03                 
         IBV    1.000000E-03     .25878         1.000000E-03                 
          RS    4.959919E-03     .021995        4.959919E-03    5            
          TT                  216.400000E-09                                 
         CJO                  117.720000E-12                                 
          VJ                     .53537                                      
           M                     .25488                                      


**** 03/23/18 09:07:36 ********* PSpice 9.2 (Mar 2000) ******** ID# 1 ********

 ** Profile: "SCHEMATIC1-timetrans1"  [ D:\Radio\Devices\PS3604L\OrCad\outamp\outamp-SCHEMATIC1-timetrans1.sim ] 


 ****     BJT MODEL PARAMETERS


******************************************************************************




               QBC847/PLP      QBC856/PLP      
               NPN             PNP             
          IS   18.220000E-15   20.140000E-15 
          BF  324.4           315.3          
          NF     .9932           .9974       
         VAF   82              39.15         
         IKF     .109            .079        
         ISE  289.400000E-18    6.578000E-15 
          NE    1.4             1.45         
          BR    8.29            8.68         
          NR     .9931           .9952       
         VAR   17.9             9.5          
         IKR     .09             .09         
         ISC    9.982000E-12   16.330000E-15 
          NC    1.763           1.15         
          RB   10              10            
         RBM    5               5.000000E-06 
         IRB    5.000000E-06    5.000000E-06 
          RE     .649            .663        
          RC     .7014           .718        
         CJE   12.440000E-12   11.350000E-12 
         VJE     .7579           .7071       
         MJE     .3656           .3808       
         CJC    3.347000E-12    6.395000E-12 
         VJC     .5463           .4951       
         MJC     .391            .44         
        XCJC     .6193           .6288       
         MJS     .333            .333        
          FC     .979            .9059       
          TF  490.800000E-12  654.600000E-12 
         XTF    9.51            5.387        
         VTF    2.927           6.245        
         ITF     .3131           .2108       
          TR   90.000000E-09   55.000000E-09 
          CN    2.42            2.2          
           D     .87             .52         


**** 03/23/18 09:07:36 ********* PSpice 9.2 (Mar 2000) ******** ID# 1 ********

 ** Profile: "SCHEMATIC1-timetrans1"  [ D:\Radio\Devices\PS3604L\OrCad\outamp\outamp-SCHEMATIC1-timetrans1.sim ] 


 ****     MOSFET MODEL PARAMETERS


******************************************************************************




               IRF510          X_U1.POX        X_U1.NOX        X_U1.PIX        
               NMOS            PMOS            NMOS            PMOS            
       LEVEL    3               2               2               2            
           L    2.000000E-06  100.000000E-06  100.000000E-06  100.000000E-06 
           W     .64          100.000000E-06  100.000000E-06  100.000000E-06 
         VTO    3.697           -.328            .328           -.328        
          KP   20.680000E-06   10.000000E-06   10.000000E-06   10.000000E-06 
       GAMMA    0               0               0               0            
         PHI     .6              .6              .6              .6          
      LAMBDA    0                .01             .01             .01         
          RD     .02108                                                      
          RS     .4508                                                       
          RG    2.977                                                        
         RDS  444.400000E+03                                                 
          IS  202.900000E-15   10.000000E-15   10.000000E-15   10.000000E-15 
          JS    0               0               0               0            
          PB     .8              .8              .8              .8          
        PBSW     .8              .8              .8              .8          
         CBD  366.500000E-12                                                 
          CJ    0               0               0               0            
        CJSW    0               0               0               0            
          TT  135.000000E-09                                                 
        CGSO  600.500000E-12    0               0               0            
        CGDO   62.710000E-12    0               0               0            
        CGBO    0               0               0               0            
         TOX  100.000000E-09  100.000000E-09  100.000000E-09     .1          
          XJ    0               0               0               0            
       UCRIT   10.000000E+03   10.000000E+03   10.000000E+03   10.000000E+03 
       DELTA    0                                                            
         ETA    0                                                            
          KF                                                    0            
      DIOMOD    1               1               1               1            
         VFB    0               0               0               0            
        LETA    0               0               0               0            
        WETA    0               0               0               0            
          U0    0               0               0               0            
        TEMP    0               0               0               0            
         VDD    0               0               0               0            
       XPART    0               0               0               0            


               X_U1.NIX        X_U5.POX        X_U5.NOX        X_U5.PIX        
               NMOS            PMOS            NMOS            PMOS            
       LEVEL    2               2               2               2            
           L  100.000000E-06  100.000000E-06  100.000000E-06  100.000000E-06 
           W  100.000000E-06  100.000000E-06  100.000000E-06  100.000000E-06 
         VTO     .328           -.328            .328           -.328        
          KP   10.000000E-06   10.000000E-06   10.000000E-06   10.000000E-06 
       GAMMA    0               0               0               0            
         PHI     .6              .6              .6              .6          
      LAMBDA     .01             .01             .01             .01         
          IS   10.000000E-15   10.000000E-15   10.000000E-15   10.000000E-15 
          JS    0               0               0               0            
          PB     .8              .8              .8              .8          
        PBSW     .8              .8              .8              .8          
          CJ    0               0               0               0            
        CJSW    0               0               0               0            
        CGSO    0               0               0               0            
        CGDO    0               0               0               0            
        CGBO    0               0               0               0            
         TOX     .1           100.000000E-09  100.000000E-09     .1          
          XJ    0               0               0               0            
       UCRIT   10.000000E+03   10.000000E+03   10.000000E+03   10.000000E+03 
          KF    0                                               0            
      DIOMOD    1               1               1               1            
         VFB    0               0               0               0            
        LETA    0               0               0               0            
        WETA    0               0               0               0            
          U0    0               0               0               0            
        TEMP    0               0               0               0            
         VDD    0               0               0               0            
       XPART    0               0               0               0            


               X_U5.NIX        X_U25.POX       X_U25.NOX       X_U25.PIX       
               NMOS            PMOS            NMOS            PMOS            
       LEVEL    2               2               2               2            
           L  100.000000E-06  100.000000E-06  100.000000E-06  100.000000E-06 
           W  100.000000E-06  100.000000E-06  100.000000E-06  100.000000E-06 
         VTO     .328           -.328            .328           -.328        
          KP   10.000000E-06   10.000000E-06   10.000000E-06   10.000000E-06 
       GAMMA    0               0               0               0            
         PHI     .6              .6              .6              .6          
      LAMBDA     .01             .01             .01             .01         
          IS   10.000000E-15   10.000000E-15   10.000000E-15   10.000000E-15 
          JS    0               0               0               0            
          PB     .8              .8              .8              .8          
        PBSW     .8              .8              .8              .8          
          CJ    0               0               0               0            
        CJSW    0               0               0               0            
        CGSO    0               0               0               0            
        CGDO    0               0               0               0            
        CGBO    0               0               0               0            
         TOX     .1           100.000000E-09  100.000000E-09     .1          
          XJ    0               0               0               0            
       UCRIT   10.000000E+03   10.000000E+03   10.000000E+03   10.000000E+03 
          KF    0                                               0            
      DIOMOD    1               1               1               1            
         VFB    0               0               0               0            
        LETA    0               0               0               0            
        WETA    0               0               0               0            
          U0    0               0               0               0            
        TEMP    0               0               0               0            
         VDD    0               0               0               0            
       XPART    0               0               0               0            


               X_U25.NIX       X_U3.POX        X_U3.NOX        X_U3.PIX        
               NMOS            PMOS            NMOS            PMOS            
       LEVEL    2               2               2               2            
           L  100.000000E-06  100.000000E-06  100.000000E-06  100.000000E-06 
           W  100.000000E-06  100.000000E-06  100.000000E-06  100.000000E-06 
         VTO     .328           -.328            .328           -.328        
          KP   10.000000E-06   10.000000E-06   10.000000E-06   10.000000E-06 
       GAMMA    0               0               0               0            
         PHI     .6              .6              .6              .6          
      LAMBDA     .01             .01             .01             .01         
          IS   10.000000E-15   10.000000E-15   10.000000E-15   10.000000E-15 
          JS    0               0               0               0            
          PB     .8              .8              .8              .8          
        PBSW     .8              .8              .8              .8          
          CJ    0               0               0               0            
        CJSW    0               0               0               0            
        CGSO    0               0               0               0            
        CGDO    0               0               0               0            
        CGBO    0               0               0               0            
         TOX     .1           100.000000E-09  100.000000E-09     .1          
          XJ    0               0               0               0            
       UCRIT   10.000000E+03   10.000000E+03   10.000000E+03   10.000000E+03 
          KF    0                                               0            
      DIOMOD    1               1               1               1            
         VFB    0               0               0               0            
        LETA    0               0               0               0            
        WETA    0               0               0               0            
          U0    0               0               0               0            
        TEMP    0               0               0               0            
         VDD    0               0               0               0            
       XPART    0               0               0               0            


               X_U3.NIX        X_U4.POX        X_U4.NOX        X_U4.PIX        
               NMOS            PMOS            NMOS            PMOS            
       LEVEL    2               2               2               2            
           L  100.000000E-06  100.000000E-06  100.000000E-06  100.000000E-06 
           W  100.000000E-06  100.000000E-06  100.000000E-06  100.000000E-06 
         VTO     .328           -.328            .328           -.328        
          KP   10.000000E-06   10.000000E-06   10.000000E-06   10.000000E-06 
       GAMMA    0               0               0               0            
         PHI     .6              .6              .6              .6          
      LAMBDA     .01             .01             .01             .01         
          IS   10.000000E-15   10.000000E-15   10.000000E-15   10.000000E-15 
          JS    0               0               0               0            
          PB     .8              .8              .8              .8          
        PBSW     .8              .8              .8              .8          
          CJ    0               0               0               0            
        CJSW    0               0               0               0            
        CGSO    0               0               0               0            
        CGDO    0               0               0               0            
        CGBO    0               0               0               0            
         TOX     .1           100.000000E-09  100.000000E-09     .1          
          XJ    0               0               0               0            
       UCRIT   10.000000E+03   10.000000E+03   10.000000E+03   10.000000E+03 
          KF    0                                               0            
      DIOMOD    1               1               1               1            
         VFB    0               0               0               0            
        LETA    0               0               0               0            
        WETA    0               0               0               0            
          U0    0               0               0               0            
        TEMP    0               0               0               0            
         VDD    0               0               0               0            
       XPART    0               0               0               0            


               X_U4.NIX        
               NMOS            
       LEVEL    2            
           L  100.000000E-06 
           W  100.000000E-06 
         VTO     .328        
          KP   10.000000E-06 
       GAMMA    0            
         PHI     .6          
      LAMBDA     .01         
          IS   10.000000E-15 
          JS    0            
          PB     .8          
        PBSW     .8          
          CJ    0            
        CJSW    0            
        CGSO    0            
        CGDO    0            
        CGBO    0            
         TOX     .1          
          XJ    0            
       UCRIT   10.000000E+03 
          KF    0            
      DIOMOD    1            
         VFB    0            
        LETA    0            
        WETA    0            
          U0    0            
        TEMP    0            
         VDD    0            
       XPART    0            


**** 03/23/18 09:07:36 ********* PSpice 9.2 (Mar 2000) ******** ID# 1 ********

 ** Profile: "SCHEMATIC1-timetrans1"  [ D:\Radio\Devices\PS3604L\OrCad\outamp\outamp-SCHEMATIC1-timetrans1.sim ] 


 ****     Voltage Controlled Switch MODEL PARAMETERS


******************************************************************************




               X_S1._S1        
         RON    1            
        ROFF    1.000000E+06 
         VON    1            
        VOFF    0            


**** 03/23/18 09:07:36 ********* PSpice 9.2 (Mar 2000) ******** ID# 1 ********

 ** Profile: "SCHEMATIC1-timetrans1"  [ D:\Radio\Devices\PS3604L\OrCad\outamp\outamp-SCHEMATIC1-timetrans1.sim ] 


 ****     Digital IO  MODEL PARAMETERS


******************************************************************************




               IO_STM          
        DRVL    0            
        DRVH    0            
       DtoA1 DtoA_STM        
       DtoA2 DtoA_STM        
       DtoA3 DtoA_STM        
       DtoA4 DtoA_STM        
       TPWRT  100.000000E+03 


WARNING -- Pulse Period < (Rise Time + Fall Time + Pulse Width) for V_V1
WARNING -- Pulse Period < (Rise Time + Fall Time + Pulse Width) for V_V1
**** 03/23/18 09:07:36 ********* PSpice 9.2 (Mar 2000) ******** ID# 1 ********

 ** Profile: "SCHEMATIC1-timetrans1"  [ D:\Radio\Devices\PS3604L\OrCad\outamp\outamp-SCHEMATIC1-timetrans1.sim ] 


 ****     INITIAL TRANSIENT SOLUTION       TEMPERATURE =   27.000 DEG C


******************************************************************************



 NODE   VOLTAGE     NODE   VOLTAGE     NODE   VOLTAGE     NODE   VOLTAGE


(   V1)   10.0000  (   V2)   20.0000  (   V3)   30.0000  (   V4)   40.0000      

(   VG)   56.0000  ( 3_3V)    3.3000  (I_SET)    3.0000  (V_SET)    0.0000      

(N06299)    1.4921 (N06335)     .7659 (N06834)     .8312 (N07172)     .8312     

(N08478) 18.45E-06 (N13824) 18.45E-06 (N14863)   30.0000 (N15415) 17.20E-06     

(N15493) 81.52E-06 (N22751)   30.0000 (N24798)     .3497 (N26838)   20.0000     

(N26922)   20.0000 (N27737)   10.0000 (N27743)   10.0000 (N27962)     .0102     

(N30946)     .8312 (N35328)   55.3340 (N35884)   55.1670 (N43898) 248.2E-12     

(N43902) 477.1E-12 (N43914) 1.971E-06 (N48658)     .8312 (N48676)    3.1635     

(N48888) 6.958E-09 (N60803)     .0011 (X_U1.7)-65.18E-06 (X_U1.8)     .4070     

(X_U1.9)    3.0000 (X_U3.7)    3.0000 (X_U3.8)     .4610 (X_U3.9)    3.0000     

(X_U4.7) 16.34E-06 (X_U4.8)     .4070 (X_U4.9)    3.0000 (X_U5.7)-63.21E-06     

(X_U5.8)     .4069 (X_U5.9)    3.0000 (N531164)     .3414                       

(OUT_NEG) 2.168E-06                   (OUT_POS)     .0011                       

(X_U1.10)    -.2960                   (X_U1.13)     .3000                       

(X_U1.14)     .2002                   (X_U1.16)     .1998                       

(X_U1.17)    3.3000                   (X_U1.18)    3.3000                       

(X_U1.21) 9.225E-06                   (X_U1.22)    1.6500                       

(X_U1.30)    3.0767                   (X_U1.46)    4.2623                       

(X_U1.47)    1.8661                   (X_U1.51)     .6000                       

(X_U1.72)   -1.6500                   (X_U1.73)    1.6499                       

(X_U1.80)    1.6500                   (X_U1.81)    1.6500                       

(X_U1.97)    2.7000                   (X_U1.98)    1.6500                       

(X_U25.7)     .7659                   (X_U25.8)    1.2054                       

(X_U25.9)    3.0000                   (X_U3.10)    2.5603                       

(X_U3.13)     .3000                   (X_U3.14) 1.884E-09                       

(X_U3.16)     .4000                   (X_U3.17)    2.9000                       

(X_U3.18)    3.3000                   (X_U3.21)    1.5000                       

(X_U3.22)    1.6500                   (X_U3.30)     .0249                       

(X_U3.46)    1.2105                   (X_U3.47)   -1.1857                       

(X_U3.51)     .6000                   (X_U3.72)   -1.6500                       

(X_U3.73)    1.6499                   (X_U3.80)    1.6500                       

(X_U3.81)    1.6500                   (X_U3.97)    2.7000                       

(X_U3.98)    1.6500                   (X_U4.10)    -.2960                       

(X_U4.13)     .3000                   (X_U4.14)     .2000                       

(X_U4.16)     .2000                   (X_U4.17)    3.3000                       

(X_U4.18)    3.3000                   (X_U4.21) 49.36E-06                       

(X_U4.22)    1.6500                   (X_U4.30)    1.7824                       

(X_U4.46)    2.9680                   (X_U4.47)     .5718                       

(X_U4.51)     .6000                   (X_U4.72)   -1.6500                       

(X_U4.73)    1.6499                   (X_U4.80)    1.6500                       

(X_U4.81)    1.6500                   (X_U4.97)    2.7000                       

(X_U4.98)    1.6500                   (X_U5.10)    -.2960                       

(X_U5.13)     .3000                   (X_U5.14)     .2002                       

(X_U5.16)     .1998                   (X_U5.17)    3.3000                       

(X_U5.18)    3.3000                   (X_U5.21) 985.6E-09                       

(X_U5.22)    1.6500                   (X_U5.30)    3.0684                       

(X_U5.46)    4.2540                   (X_U5.47)    1.8578                       

(X_U5.51)     .6000                   (X_U5.72)   -1.6500                       

(X_U5.73)    1.6499                   (X_U5.80)    1.6500                       

(X_U5.81)    1.6500                   (X_U5.97)    2.7000                       

(X_U5.98)    1.6500                   (M_UN0001)     .3549                      

(X_U25.10)    2.7238                  (X_U25.13)     .6549                      

(X_U25.14)     .7549                  (X_U25.16)     .3549                      

(X_U25.17)    3.3000                  (X_U25.18)    2.9000                      

(X_U25.21)    1.9647                  (X_U25.22)    1.8275                      

(X_U25.30)    3.2751                  (X_U25.46)    4.2833                      

(X_U25.47)    2.2420                  (X_U25.51)     .9549                      

(X_U25.72)   -1.1176                  (X_U25.73)    1.8274                      

(X_U25.80)    1.8275                  (X_U25.81)    1.8275                      

(X_U25.97)    2.7000                  (X_U25.98)    1.8275                  



 DGTL NODE : STATE  DGTL NODE : STATE  DGTL NODE : STATE  DGTL NODE : STATE


(   L_MOD) : 0     




    VOLTAGE SOURCE CURRENTS
    NAME         CURRENT

    V_VCC6      -1.656E-02
    V_VCC1      -4.796E-03
    V_VCC4      -8.797E-09
    V_VCC7      -3.050E-12
    V_V1        -4.998E-14
    V_VCC3      -8.041E-09
    V_VCC5      -2.250E-05
    V_VCC2      -4.564E-09
    X_U1.V1      2.603E-12
    X_U1.V2     -1.000E-04
    X_U1.VN1     0.000E+00
    X_U5.V1      2.603E-12
    X_U5.V2     -1.000E-04
    X_U5.VN1     0.000E+00
    X_U25.V1     1.805E-12
    X_U25.V2     2.079E-12
    X_U25.VN1    0.000E+00
    X_U3.V1      2.549E-12
    X_U3.V2      2.270E-12
    X_U3.VN1     0.000E+00
    X_U4.V1      2.603E-12
    X_U4.V2     -1.000E-04
    X_U4.VN1     0.000E+00

    TOTAL POWER DISSIPATION   9.44E-01  WATTS



          JOB CONCLUDED

          TOTAL JOB TIME             .44
