
**** 03/16/18 18:58:44 ********* PSpice 9.2 (Mar 2000) ******** ID# 1 ********

 ** Profile: "SCHEMATIC1-timetrans"  [ D:\Radio\Devices\PS3604L\OrCad\outamp\outamp-SCHEMATIC1-timetrans.sim ] 


 ****     CIRCUIT DESCRIPTION


******************************************************************************




** Creating circuit file "outamp-SCHEMATIC1-timetrans.sim.cir" 
** WARNING: THIS AUTOMATICALLY GENERATED FILE MAY BE OVERWRITTEN BY SUBSEQUENT SIMULATIONS

*Libraries: 
* Local Libraries :
* From [PSPICE NETLIST] section of c:\programfiles\Orcad\PSpice\PSpice.ini file:
.lib "C:\ProgramFiles\Orcad\Capture\Library\PSpice\nom.lib" 

*Analysis directives: 
.TRAN  0 200us 0 1ms 
.PROBE V(*) I(*) W(*) D(*) NOISE(*) 
.INC ".\outamp-SCHEMATIC1.net" 



**** INCLUDING outamp-SCHEMATIC1.net ****
* source OUTAMP
V_VCC6         VG 0 56Vdc
V_VCC1         3_3V 0 3.3Vdc
R_R17         OUT_NEG 0  0.082  
X_S1    L_MOD 0 OUT_NEG N60803 SCHEMATIC1_S1 
R_R34         N531164 0  1k  
R_R15         0 N43914  100k  
R_R19         N43898 0  1k  
R_R1         N07172 VG  5k  
D_D7         N24798 N27962 D1N4149 
V_VCC4         V3 0 30Vdc
C_C1         N07172 N06299  100p   
R_R64         N60803 V1  5  
R_R25         N43902 0  10k  
R_R2         N06834 N07172  100  
R_R22         N08478 N13824  2200  
R_R11         OUT_POS OUT_NEG  15  
D_D5         N24798 N27737 D1N4149 
R_R13         0 N15493  10k  
M_M2         N14863 N26838 N26922 N26922 IRF510
R_R5         N22751 N14863  2.2k  
M_M4         N27743 N27962 OUT_POS OUT_POS IRF510
X_U1         V_SET N13824 3_3V 0 N06335 AD8608/AD 
X_U5         N43914 N43902 3_3V 0 N43898 AD8608/AD 
R_R10         N30946 N07172  1  
U_DSTM3         STIM(1,1) $G_DPWR $G_DGND L_MOD IO_STM IO_LEVEL=0 
+ 0 0
+ +50u 1
+REPEAT FOREVER
+ +50u 0
+  +50u 1
+ ENDREPEAT
V_VCC7         I_SET 0 3Vdc
V_V1         V_SET 0  
+PULSE 1 2 20us 1us 1us 60000us 10000us
R_R24         N08478 N15415  10k  
X_U25         N06335 N48676 3_3V M_UN0001 N531164 AD8608/AD 
R_R8         N27737 N27743  2.2k  
Q_Q5         N07172 N06299 N48676 QBC847/PLP 
R_R12         N15493 OUT_POS  120k  
V_VCC3         V2 0 20Vdc
R_R23         N15415 OUT_NEG  120k  
Q_Q2         N35884 N35328 VG QBC856/PLP 
X_D4         V2 N26922 BY249-300 
X_U3         I_SET N48888 3_3V 0 N48676 AD8608/AD 
R_R6         N26838 N26922  2.2k  
R_R21         N43898 N48888  2200  
Q_Q4         N07172 N06299 N06335 QBC847/PLP 
R_R26         N43898 N43902  100k  
R_R3         0 N35328  20k  
R_R9         N27962 OUT_POS  2.2k  
C_C2         N13824 N30946  300p   
X_D2         V3 N14863 BY249-300 
X_D6         V1 N27743 BY249-300 
R_R4         0 N35884  20k  
D_D3         N24798 N26838 D1N4149 
M_M3         N26922 N27737 N27743 N27743 IRF510
M_M1         V4 N22751 N14863 N14863 IRF510
R_R20         N48658 N07172  1  
V_VCC5         V4 0 40Vdc
D_D1         N24798 N22751 D1N4149 
C_C4         N48888 N48658  100p   
Q_Q1         N35328 N35328 VG QBC856/PLP 
Q_Q3         VG N06834 N24798 QBC847/PLP 
V_VCC2         V1 0 10Vdc
R_R18         N08478 0  1k  
R_R14         N43914 OUT_NEG  10k  
X_U4         N15493 N15415 3_3V 0 N08478 AD8608/AD 
C_C3         OUT_NEG OUT_POS  0.1u   
R_R7         N06299 3_3V  1k  

.subckt SCHEMATIC1_S1 1 2 3 4  
S_S1         3 4 1 2 _S1
RS_S1         1 2 1G
.MODEL         _S1 VSWITCH Roff=1e6 Ron=1.0 Voff=0.0V Von=1.0V
.ends SCHEMATIC1_S1

**** RESUMING outamp-SCHEMATIC1-timetrans.sim.cir ****
.END


**** Generated AtoD and DtoA Interfaces ****

*
* Analog/Digital interface for node L_MOD
*
* Moving U_DSTM3:OUT1 from analog node L_MOD to new digital node L_MOD$DtoA
X$L_MOD_DtoA1
+ L_MOD$DtoA
+ L_MOD
+ $G_DPWR
+ $G_DGND
+ DtoA_STM
+       PARAMS: DRVH=   0      DRVL=   0      CAPACITANCE=   0     
*
* Analog/Digital interface power supply subcircuits
*

X$DIGIFPWR 0 DIGIFPWR

**** 03/16/18 18:58:44 ********* PSpice 9.2 (Mar 2000) ******** ID# 1 ********

 ** Profile: "SCHEMATIC1-timetrans"  [ D:\Radio\Devices\PS3604L\OrCad\outamp\outamp-SCHEMATIC1-timetrans.sim ] 


 ****     Diode MODEL PARAMETERS


******************************************************************************




               D1N4149         X_U1.DX         X_U5.DX         X_U25.DX        
          IS    2.682000E-09   10.000000E-15   10.000000E-15   10.000000E-15 
           N    1.836                                                        
         ISR    1.565000E-09                                                 
         IKF     .04417                                                      
          BV  100                                                            
         IBV  100.000000E-06                                                 
          RS     .5664          5               5               5            
          TT   11.540000E-09                                                 
         CJO    2.000000E-12                                                 
          VJ     .5                                                          
           M     .3333                                                       


               X_D4.DFWD       X_D4.DXTRA      X_U3.DX         X_D2.DFWD       
          IS   17.266270E-12    2.556412E-12   10.000000E-15   17.266270E-12 
           N    1.88563         1.24864                         1.88563      
         ISR   66.243680E-06                                   66.243680E-06 
          NR    2.63527                                         2.63527      
         IKF     .999979        2.550860E-03                     .999979     
          BV  330.0845        100.000000E+03                  330.0845       
         IBV     .25878         1.000000E-03                     .25878      
          RS     .021995        4.959919E-03    5                .021995     
          TT  216.400000E-09                                  216.400000E-09 
         CJO  117.720000E-12                                  117.720000E-12 
          VJ     .53537                                          .53537      
           M     .25488                                          .25488      


               X_D2.DXTRA      X_D6.DFWD       X_D6.DXTRA      X_U4.DX         
          IS    2.556412E-12   17.266270E-12    2.556412E-12   10.000000E-15 
           N    1.24864         1.88563         1.24864                      
         ISR                   66.243680E-06                                 
          NR                    2.63527                                      
         IKF    2.550860E-03     .999979        2.550860E-03                 
          BV  100.000000E+03  330.0845        100.000000E+03                 
         IBV    1.000000E-03     .25878         1.000000E-03                 
          RS    4.959919E-03     .021995        4.959919E-03    5            
          TT                  216.400000E-09                                 
         CJO                  117.720000E-12                                 
          VJ                     .53537                                      
           M                     .25488                                      


**** 03/16/18 18:58:44 ********* PSpice 9.2 (Mar 2000) ******** ID# 1 ********

 ** Profile: "SCHEMATIC1-timetrans"  [ D:\Radio\Devices\PS3604L\OrCad\outamp\outamp-SCHEMATIC1-timetrans.sim ] 


 ****     BJT MODEL PARAMETERS


******************************************************************************




               QBC847/PLP      QBC856/PLP      
               NPN             PNP             
          IS   18.220000E-15   20.140000E-15 
          BF  324.4           315.3          
          NF     .9932           .9974       
         VAF   82              39.15         
         IKF     .109            .079        
         ISE  289.400000E-18    6.578000E-15 
          NE    1.4             1.45         
          BR    8.29            8.68         
          NR     .9931           .9952       
         VAR   17.9             9.5          
         IKR     .09             .09         
         ISC    9.982000E-12   16.330000E-15 
          NC    1.763           1.15         
          RB   10              10            
         RBM    5               5.000000E-06 
         IRB    5.000000E-06    5.000000E-06 
          RE     .649            .663        
          RC     .7014           .718        
         CJE   12.440000E-12   11.350000E-12 
         VJE     .7579           .7071       
         MJE     .3656           .3808       
         CJC    3.347000E-12    6.395000E-12 
         VJC     .5463           .4951       
         MJC     .391            .44         
        XCJC     .6193           .6288       
         MJS     .333            .333        
          FC     .979            .9059       
          TF  490.800000E-12  654.600000E-12 
         XTF    9.51            5.387        
         VTF    2.927           6.245        
         ITF     .3131           .2108       
          TR   90.000000E-09   55.000000E-09 
          CN    2.42            2.2          
           D     .87             .52         


**** 03/16/18 18:58:44 ********* PSpice 9.2 (Mar 2000) ******** ID# 1 ********

 ** Profile: "SCHEMATIC1-timetrans"  [ D:\Radio\Devices\PS3604L\OrCad\outamp\outamp-SCHEMATIC1-timetrans.sim ] 


 ****     MOSFET MODEL PARAMETERS


******************************************************************************




               IRF510          X_U1.POX        X_U1.NOX        X_U1.PIX        
               NMOS            PMOS            NMOS            PMOS            
       LEVEL    3               2               2               2            
           L    2.000000E-06  100.000000E-06  100.000000E-06  100.000000E-06 
           W     .64          100.000000E-06  100.000000E-06  100.000000E-06 
         VTO    3.697           -.328            .328           -.328        
          KP   20.680000E-06   10.000000E-06   10.000000E-06   10.000000E-06 
       GAMMA    0               0               0               0            
         PHI     .6              .6              .6              .6          
      LAMBDA    0                .01             .01             .01         
          RD     .02108                                                      
          RS     .4508                                                       
          RG    2.977                                                        
         RDS  444.400000E+03                                                 
          IS  202.900000E-15   10.000000E-15   10.000000E-15   10.000000E-15 
          JS    0               0               0               0            
          PB     .8              .8              .8              .8          
        PBSW     .8              .8              .8              .8          
         CBD  366.500000E-12                                                 
          CJ    0               0               0               0            
        CJSW    0               0               0               0            
          TT  135.000000E-09                                                 
        CGSO  600.500000E-12    0               0               0            
        CGDO   62.710000E-12    0               0               0            
        CGBO    0               0               0               0            
         TOX  100.000000E-09  100.000000E-09  100.000000E-09     .1          
          XJ    0               0               0               0            
       UCRIT   10.000000E+03   10.000000E+03   10.000000E+03   10.000000E+03 
       DELTA    0                                                            
         ETA    0                                                            
          KF                                                    0            
      DIOMOD    1               1               1               1            
         VFB    0               0               0               0            
        LETA    0               0               0               0            
        WETA    0               0               0               0            
          U0    0               0               0               0            
        TEMP    0               0               0               0            
         VDD    0               0               0               0            
       XPART    0               0               0               0            


               X_U1.NIX        X_U5.POX        X_U5.NOX        X_U5.PIX        
               NMOS            PMOS            NMOS            PMOS            
       LEVEL    2               2               2               2            
           L  100.000000E-06  100.000000E-06  100.000000E-06  100.000000E-06 
           W  100.000000E-06  100.000000E-06  100.000000E-06  100.000000E-06 
         VTO     .328           -.328            .328           -.328        
          KP   10.000000E-06   10.000000E-06   10.000000E-06   10.000000E-06 
       GAMMA    0               0               0               0            
         PHI     .6              .6              .6              .6          
      LAMBDA     .01             .01             .01             .01         
          IS   10.000000E-15   10.000000E-15   10.000000E-15   10.000000E-15 
          JS    0               0               0               0            
          PB     .8              .8              .8              .8          
        PBSW     .8              .8              .8              .8          
          CJ    0               0               0               0            
        CJSW    0               0               0               0            
        CGSO    0               0               0               0            
        CGDO    0               0               0               0            
        CGBO    0               0               0               0            
         TOX     .1           100.000000E-09  100.000000E-09     .1          
          XJ    0               0               0               0            
       UCRIT   10.000000E+03   10.000000E+03   10.000000E+03   10.000000E+03 
          KF    0                                               0            
      DIOMOD    1               1               1               1            
         VFB    0               0               0               0            
        LETA    0               0               0               0            
        WETA    0               0               0               0            
          U0    0               0               0               0            
        TEMP    0               0               0               0            
         VDD    0               0               0               0            
       XPART    0               0               0               0            


               X_U5.NIX        X_U25.POX       X_U25.NOX       X_U25.PIX       
               NMOS            PMOS            NMOS            PMOS            
       LEVEL    2               2               2               2            
           L  100.000000E-06  100.000000E-06  100.000000E-06  100.000000E-06 
           W  100.000000E-06  100.000000E-06  100.000000E-06  100.000000E-06 
         VTO     .328           -.328            .328           -.328        
          KP   10.000000E-06   10.000000E-06   10.000000E-06   10.000000E-06 
       GAMMA    0               0               0               0            
         PHI     .6              .6              .6              .6          
      LAMBDA     .01             .01             .01             .01         
          IS   10.000000E-15   10.000000E-15   10.000000E-15   10.000000E-15 
          JS    0               0               0               0            
          PB     .8              .8              .8              .8          
        PBSW     .8              .8              .8              .8          
          CJ    0               0               0               0            
        CJSW    0               0               0               0            
        CGSO    0               0               0               0            
        CGDO    0               0               0               0            
        CGBO    0               0               0               0            
         TOX     .1           100.000000E-09  100.000000E-09     .1          
          XJ    0               0               0               0            
       UCRIT   10.000000E+03   10.000000E+03   10.000000E+03   10.000000E+03 
          KF    0                                               0            
      DIOMOD    1               1               1               1            
         VFB    0               0               0               0            
        LETA    0               0               0               0            
        WETA    0               0               0               0            
          U0    0               0               0               0            
        TEMP    0               0               0               0            
         VDD    0               0               0               0            
       XPART    0               0               0               0            


               X_U25.NIX       X_U3.POX        X_U3.NOX        X_U3.PIX        
               NMOS            PMOS            NMOS            PMOS            
       LEVEL    2               2               2               2            
           L  100.000000E-06  100.000000E-06  100.000000E-06  100.000000E-06 
           W  100.000000E-06  100.000000E-06  100.000000E-06  100.000000E-06 
         VTO     .328           -.328            .328           -.328        
          KP   10.000000E-06   10.000000E-06   10.000000E-06   10.000000E-06 
       GAMMA    0               0               0               0            
         PHI     .6              .6              .6              .6          
      LAMBDA     .01             .01             .01             .01         
          IS   10.000000E-15   10.000000E-15   10.000000E-15   10.000000E-15 
          JS    0               0               0               0            
          PB     .8              .8              .8              .8          
        PBSW     .8              .8              .8              .8          
          CJ    0               0               0               0            
        CJSW    0               0               0               0            
        CGSO    0               0               0               0            
        CGDO    0               0               0               0            
        CGBO    0               0               0               0            
         TOX     .1           100.000000E-09  100.000000E-09     .1          
          XJ    0               0               0               0            
       UCRIT   10.000000E+03   10.000000E+03   10.000000E+03   10.000000E+03 
          KF    0                                               0            
      DIOMOD    1               1               1               1            
         VFB    0               0               0               0            
        LETA    0               0               0               0            
        WETA    0               0               0               0            
          U0    0               0               0               0            
        TEMP    0               0               0               0            
         VDD    0               0               0               0            
       XPART    0               0               0               0            


               X_U3.NIX        X_U4.POX        X_U4.NOX        X_U4.PIX        
               NMOS            PMOS            NMOS            PMOS            
       LEVEL    2               2               2               2            
           L  100.000000E-06  100.000000E-06  100.000000E-06  100.000000E-06 
           W  100.000000E-06  100.000000E-06  100.000000E-06  100.000000E-06 
         VTO     .328           -.328            .328           -.328        
          KP   10.000000E-06   10.000000E-06   10.000000E-06   10.000000E-06 
       GAMMA    0               0               0               0            
         PHI     .6              .6              .6              .6          
      LAMBDA     .01             .01             .01             .01         
          IS   10.000000E-15   10.000000E-15   10.000000E-15   10.000000E-15 
          JS    0               0               0               0            
          PB     .8              .8              .8              .8          
        PBSW     .8              .8              .8              .8          
          CJ    0               0               0               0            
        CJSW    0               0               0               0            
        CGSO    0               0               0               0            
        CGDO    0               0               0               0            
        CGBO    0               0               0               0            
         TOX     .1           100.000000E-09  100.000000E-09     .1          
          XJ    0               0               0               0            
       UCRIT   10.000000E+03   10.000000E+03   10.000000E+03   10.000000E+03 
          KF    0                                               0            
      DIOMOD    1               1               1               1            
         VFB    0               0               0               0            
        LETA    0               0               0               0            
        WETA    0               0               0               0            
          U0    0               0               0               0            
        TEMP    0               0               0               0            
         VDD    0               0               0               0            
       XPART    0               0               0               0            


               X_U4.NIX        
               NMOS            
       LEVEL    2            
           L  100.000000E-06 
           W  100.000000E-06 
         VTO     .328        
          KP   10.000000E-06 
       GAMMA    0            
         PHI     .6          
      LAMBDA     .01         
          IS   10.000000E-15 
          JS    0            
          PB     .8          
        PBSW     .8          
          CJ    0            
        CJSW    0            
        CGSO    0            
        CGDO    0            
        CGBO    0            
         TOX     .1          
          XJ    0            
       UCRIT   10.000000E+03 
          KF    0            
      DIOMOD    1            
         VFB    0            
        LETA    0            
        WETA    0            
          U0    0            
        TEMP    0            
         VDD    0            
       XPART    0            


**** 03/16/18 18:58:44 ********* PSpice 9.2 (Mar 2000) ******** ID# 1 ********

 ** Profile: "SCHEMATIC1-timetrans"  [ D:\Radio\Devices\PS3604L\OrCad\outamp\outamp-SCHEMATIC1-timetrans.sim ] 


 ****     Voltage Controlled Switch MODEL PARAMETERS


******************************************************************************




               X_S1._S1        
         RON    1            
        ROFF    1.000000E+06 
         VON    1            
        VOFF    0            


**** 03/16/18 18:58:44 ********* PSpice 9.2 (Mar 2000) ******** ID# 1 ********

 ** Profile: "SCHEMATIC1-timetrans"  [ D:\Radio\Devices\PS3604L\OrCad\outamp\outamp-SCHEMATIC1-timetrans.sim ] 


 ****     Digital Input MODEL PARAMETERS


******************************************************************************




               DINSTM          
        FILE DSO_DTOA        
      FORMAT    6            
    TIMESTEP  100.000000E-12 
      S0NAME 0               
       S0TSW  500.000000E-12 
       S0RLO     .5          
       S0RHI    1.000000E+03 
      S1NAME 1               
       S1TSW  500.000000E-12 
       S1RLO    1.000000E+03 
       S1RHI     .5          
      S2NAME X               
       S2TSW  500.000000E-12 
       S2RLO     .429        
       S2RHI    1.16         
      S3NAME R               
       S3TSW  500.000000E-12 
       S3RLO     .429        
       S3RHI    1.16         
      S4NAME F               
       S4TSW  500.000000E-12 
       S4RLO     .429        
       S4RHI    1.16         
      S5NAME Z               
       S5TSW  500.000000E-12 
       S5RLO    1.000000E+06 
       S5RHI    1.000000E+06 


**** 03/16/18 18:58:44 ********* PSpice 9.2 (Mar 2000) ******** ID# 1 ********

 ** Profile: "SCHEMATIC1-timetrans"  [ D:\Radio\Devices\PS3604L\OrCad\outamp\outamp-SCHEMATIC1-timetrans.sim ] 


 ****     Digital IO  MODEL PARAMETERS


******************************************************************************




               IO_STM          
        DRVL    0            
        DRVH    0            
       DtoA1 DtoA_STM        
       DtoA2 DtoA_STM        
       DtoA3 DtoA_STM        
       DtoA4 DtoA_STM        
       TPWRT  100.000000E+03 


WARNING -- Pulse Period < (Rise Time + Fall Time + Pulse Width) for V_V1
WARNING -- Pulse Period < (Rise Time + Fall Time + Pulse Width) for V_V1
ERROR -- Convergence problem in transient bias point calculation


  Last node voltages tried were:

 NODE   VOLTAGE     NODE   VOLTAGE     NODE   VOLTAGE     NODE   VOLTAGE


(   V1)    5.4903  (   V2)   10.9810  (   V3)   16.4710  (   V4)   21.9610      

(   VG)   30.7450  ( 3_3V)    1.8118  (I_SET)    1.6471  (L_MOD)     .0014      

(V_SET)     .5490  (N06299)    1.8118 (N06335)    1.3367 (N06834)   30.4390     

(N07172)   30.4450 (N08478)     .5490 (N13824)     .5490 (N14863)   21.3060     

(N15415)     .5149 (N15493)    1.4904 (N22751)   29.0510 (N24798)   29.7180     

(N26838)   29.0470 (N26922)   20.6590 (N27737)   29.0430 (N27743)   20.0160     

(N27962)   29.0400 (N30946)   30.4450 (N35328)   30.0960 (N35884)   29.9760     

(N43898)     .5328 (N43902)     .0484 (N43914)     .0958 (N48658)   30.4450     

(N48676)    1.8118 (N48888)     .5328 (N60803)    5.4902 (X_U1.7)     .5490     

(X_U1.8)     .9354 (X_U1.9)    1.6471 (X_U3.7)    1.6471 (X_U3.8)     .9433     

(X_U3.9)    1.6471 (X_U4.7)    1.4904 (X_U4.8)     .9254 (X_U4.9)    1.6471     

(X_U5.7)     .0958 (X_U5.8)     .4536 (X_U5.9)    1.6471 ($G_DGND)    0.0000    

($G_DPWR)    2.7451                   (N531164)     .1185                       

(OUT_NEG)     .1053                   (OUT_POS)   19.3750                       

(X_U1.10)     .1629                   (X_U1.13)     .1647                       

(X_U1.14)     .1098                   (X_U1.16)     .1098                       

(X_U1.17)    1.7020                   (X_U1.18)    1.7020                       

(X_U1.21)     .5257                   (X_U1.22)     .4974                       

(X_U1.30)     .6843                   (X_U1.46)    1.6595                       

(X_U1.47)     .3439                   (X_U1.51)     .3294                       

(X_U1.72)    -.4974                   (X_U1.73)     .4973                       

(X_U1.80)     .4974                   (X_U1.81)     .4974                       

(X_U1.97)     .6653                   (X_U1.98)     .4974                       

(X_U25.7)    1.3367                   (X_U25.8) 8.189E+06                       

(X_U25.9)    1.6471                   (X_U3.10)    1.2364                       

(X_U3.13)     .1647                   (X_U3.14) 3.813E-09                       

(X_U3.16)     .2196                   (X_U3.17)    1.5922                       

(X_U3.18)    1.8118                   (X_U3.21)     .8227                       

(X_U3.22)     .4974                   (X_U3.30)    -.2145                       

(X_U3.46)    1.1660                   (X_U3.47)    -.1496                       

(X_U3.51)     .3294                   (X_U3.72)    -.4974                       

(X_U3.73)     .4973                   (X_U3.80)     .4974                       

(X_U3.81)     .4974                   (X_U3.97)     .6653                       

(X_U3.98)     .4974                   (X_U4.10)    1.0798                       

(X_U4.13)     .1647                   (X_U4.14) 3.742E-09                       

(X_U4.16)     .2196                   (X_U4.17)    1.5922                       

(X_U4.18)    1.8118                   (X_U4.21)     .7748                       

(X_U4.22)     .4974                   (X_U4.30)    -.2145                       

(X_U4.46)    1.1660                   (X_U4.47)    -.1496                       

(X_U4.51)     .3294                   (X_U4.72)    -.4974                       

(X_U4.73)     .4973                   (X_U4.80)     .4974                       

(X_U4.81)     .4974                   (X_U4.97)     .6653                       

(X_U4.98)     .4974                   (X_U5.10)    -.3083                       

(X_U5.13)     .1647                   (X_U5.14)     .0286                       

(X_U5.16)     .1910                   (X_U5.17)    1.6228                       

(X_U5.18)    1.7847                   (X_U5.21)     .2639                       

(X_U5.22)     .4974                   (X_U5.30)    -.2067                       

(X_U5.46)    1.1703                   (X_U5.47)    -.1453                       

(X_U5.51)     .3294                   (X_U5.72)    -.4974                       

(X_U5.73)     .4973                   (X_U5.80)     .4974                       

(X_U5.81)     .4974                   (X_U5.97)     .6653                       

(X_U5.98)     .4974                   (M_UN0001)     .1402                      

(X_U25.10)    1.2596                  (X_U25.13)     .3049                      

(X_U25.14)     .1856                  (X_U25.16)     .1729                      

(X_U25.17)    2.1239                  (X_U25.18)    1.2800                      

(X_U25.21)    1.1059                  (X_U25.22)     .5358                      

(X_U25.30)    1.2768                  (X_U25.46)    1.9636                      

(X_U25.47)     .7882                  (X_U25.51)     .4064                      

(X_U25.72)    -.3819                  (X_U25.73)     .5358                      

(X_U25.80)     .5358                  (X_U25.81)     .5358                      

(X_U25.97)     .6653                  (X_U25.98)     .5358                  



 DGTL NODE : STATE  DGTL NODE : STATE  DGTL NODE : STATE  DGTL NODE : STATE


(L_MOD$DtoA) : 0   


  These voltages failed to converge:

    V(N531164)                =   149.01mV  \   118.50mV
    V(N06335)                 =     1.342V  \     1.337V
    V(X_U25.14)               =     7.390V  \   185.58mV
    V(X_U25.7)                =     1.342V  \     1.337V
    V(X_U25.8)                =     2.159V  \    8.189MV
    V(X_U25.16)               =    -6.834V  \   172.91mV
    V(X_U25.17)               =     1.812V  \     2.124V
    V(X_U25.10)               =     1.548V  \     1.260V
    V(X_U25.18)               =     1.592V  \     1.280V
    V(M_UN0001)               =   175.76mV  \   140.16mV
    V(X_U25.13)               =   340.47mV  \   304.86mV
    V(X_U25.22)               =   545.61mV  \   535.84mV
    V(X_U25.98)               =   545.61mV  \   535.83mV
    V(X_U25.73)               =   545.59mV  \   535.82mV
    V(X_U25.81)               =   545.61mV  \   535.83mV
    V(X_U25.21)               =     1.112V  \     1.106V
    V(X_U25.72)               =  -352.61mV  \  -381.93mV
    V(X_U25.80)               =   545.61mV  \   535.83mV
    V(X_U25.51)               =   425.91mV  \   406.37mV
    V(X_U25.30)               =     1.316V  \     1.277V
    V(X_U25.46)               =     1.980V  \     1.964V
    V(X_U25.47)               =   839.83mV  \   788.18mV

  These supply currents failed to converge:

    I(X_U25.ECM1)             =   -5.662uA  \   -5.701uA
    I(X_U25.EPSY)             =   -15.97uA  \   -16.32uA
    I(X_U25.EVP)              =   446.45uA  \    26.48uA
    I(V_VCC1)                 =   -1.868mA  \   -1.838mA
    I(X_U25.V1)               =   -3.907uA  \   -8.189uA

  These devices failed to converge:
    X_U25.D1  X_U25.D3  X_U25.M1  X_U25.M2  X_U25.M4  X_U25.M6  Q_Q4      
