
**** 08/08/16 19:41:56 ********* PSpice 9.2 (Mar 2000) ******** ID# 1 ********

 * D:\Radio\Devices\PS3608L\OrCad\CulerReg2.sch


 ****     CIRCUIT DESCRIPTION


******************************************************************************




* Schematics Version 9.2
* Mon Aug 08 19:41:56 2016



** Analysis setup **
.tran 20ns 3ms


* From [PSPICE NETLIST] section of c:\programfiles\Orcad\PSpice\PSpice.ini:
.lib "nom.lib"

.INC "CulerReg2.net"



**** INCLUDING CulerReg2.net ****
* Schematics Netlist *



V_V1         +12V 0 12V
C_C3         +12V 0  10u  
R_R17         $N_0002 $N_0001  100  
V_V13         $N_0003 0 2V
R_R21         $N_0005 $N_0004  1k  
R_R13         0 $N_0006  1k  
X_U1         $N_0006 $N_0004 +12V 0 $N_0001 LMC7101A/NS
Q_Q3         $N_0007 $N_0002 +12V BC857A 
R_R12         $N_0007 $N_0006  3k  
V_V2         $N_0005 0 2V
X_S3    $N_0008 $N_0003 $N_0009 0 CulerReg2_S3 
V_V14         $N_0008 0  
+PULSE 0 5 0us 0us 0us 1.5ms 3ms
R_R22         $N_0007 $N_0009  80  
C_C7         $N_0006 $N_0007  47n  

.subckt CulerReg2_S3 1 2 3 4  
S_S3         3 4 1 2 Sbreak
RS_S3         1 2 1G
.ends CulerReg2_S3

**** RESUMING CulerReg2.cir ****
.PROBE V(*) I(*) W(*) D(*) NOISE(*) 


.END

**** 08/08/16 19:41:56 ********* PSpice 9.2 (Mar 2000) ******** ID# 1 ********

 * D:\Radio\Devices\PS3608L\OrCad\CulerReg2.sch


 ****     Diode MODEL PARAMETERS


******************************************************************************




               X_U1.DA         X_U1.DB         X_U1.DC         X_U1.DX         
          IS   13.000000E-12   12.000000E-12   10.000000E-12   10.000000E-15 


**** 08/08/16 19:41:56 ********* PSpice 9.2 (Mar 2000) ******** ID# 1 ********

 * D:\Radio\Devices\PS3608L\OrCad\CulerReg2.sch


 ****     BJT MODEL PARAMETERS


******************************************************************************




               BC857A          
               PNP             
          IS  336.700000E-15 
          BF  180.6          
          NF    1            
         VAF  106.8          
         IKF     .1094       
         ISE    2.666000E-12 
          NE    1.944        
          BR    7.16         
          NR    1            
         IKR    9.677        
         ISC  196.000000E-12 
          NC    1.815        
          NK     .4986       
          RC    2.791        
         CJE    8.397000E-12 
         VJE     .5          
         MJE     .3865       
         CJC   11.510000E-12 
         VJC     .5          
         MJC     .3626       
          TF  605.100000E-12 
         XTF   20.43         
         VTF   10            
         ITF    2.326        
          TR   10.000000E-09 
         XTB    1.5          
          CN    2.2          
           D     .52         


**** 08/08/16 19:41:56 ********* PSpice 9.2 (Mar 2000) ******** ID# 1 ********

 * D:\Radio\Devices\PS3608L\OrCad\CulerReg2.sch


 ****     MOSFET MODEL PARAMETERS


******************************************************************************




               X_U1.MOSFET     
               PMOS            
       LEVEL    1            
           L  100.000000E-06 
           W  100.000000E-06 
         VTO    0            
          KP    1.842000E-03 
       GAMMA    0            
         PHI     .6          
      LAMBDA    0            
          IS   10.000000E-15 
          JS    0            
          PB     .8          
        PBSW     .8          
          CJ    0            
        CJSW    0            
        CGSO    0            
        CGDO    0            
        CGBO    0            
         TOX    0            
          XJ    0            
       UCRIT   10.000000E+03 
      DIOMOD    1            
         VFB    0            
        LETA    0            
        WETA    0            
          U0    0            
        TEMP    0            
         VDD    0            
       XPART    0            


**** 08/08/16 19:41:56 ********* PSpice 9.2 (Mar 2000) ******** ID# 1 ********

 * D:\Radio\Devices\PS3608L\OrCad\CulerReg2.sch


 ****     Voltage Controlled Switch MODEL PARAMETERS


******************************************************************************




               Sbreak          
         RON    1            
        ROFF    1.000000E+06 
         VON    1            
        VOFF    0            


**** 08/08/16 19:41:56 ********* PSpice 9.2 (Mar 2000) ******** ID# 1 ********

 * D:\Radio\Devices\PS3608L\OrCad\CulerReg2.sch


 ****     INITIAL TRANSIENT SOLUTION       TEMPERATURE =   27.000 DEG C


******************************************************************************



 NODE   VOLTAGE     NODE   VOLTAGE     NODE   VOLTAGE     NODE   VOLTAGE


( +12V)   12.0000  (X_U1.4)    2.0961 (X_U1.5)     .0480 (X_U1.6)     .0480     

(X_U1.7)    2.0000 (X_U1.8)   10.4400 (X_U1.9)    5.9998 ($N_0001)   11.4170    

($N_0002)   11.4180                   ($N_0003)    2.0000                       

($N_0004)    2.0000                   ($N_0005)    2.0000                       

($N_0006)    1.9962                   ($N_0007)    7.9849                       

($N_0008)    0.0000                   ($N_0009)    7.9843                       

(X_U1.10)    1.5600                   (X_U1.15)    5.9998                       

(X_U1.16)    5.9998                   (X_U1.17)    6.0000                       

(X_U1.18)    5.9998                   (X_U1.19)    6.0000                       

(X_U1.29)    5.8641                   (X_U1.30)   12.1820                       

(X_U1.31)   10.6420                   (X_U1.35)   12.1980                       

(X_U1.36)   12.0000                   (X_U1.37)    6.0000                       

(X_U1.38)    6.0000                   (X_U1.39)   11.4120                       

(X_U1.40)   11.4120                   (X_U1.49)    6.0000                       

(X_U1.96)    0.0000                   (X_U1.97)   12.0000                       

(X_U1.98)    6.0000                   (X_U1.115)   11.4110                      

(X_U1.120)   14.0170                  (X_U1.121)    8.8171                      

(X_U1.123)   11.4110                  (X_U1.124)   11.4400                      

(X_U1.125)   11.3920                  (X_U1.126)   12.0470                      

(X_U1.127)   10.7870                  (X_U1.129)   14.0170                      

(X_U1.130)    8.8171                  




    VOLTAGE SOURCE CURRENTS
    NAME         CURRENT

    V_V1        -2.603E-03
    V_V13       -2.002E-09
    V_V2         1.000E-11
    V_V14        2.002E-09
    X_U1.V2      4.586E-12
    X_U1.V3      4.314E-12
    X_U1.VA7    -2.083E-13
    X_U1.VA8     2.198E-11
    X_U1.VN7    -1.462E-04
    X_U1.VN6    -1.574E-04
    X_U1.VN4    -2.616E-12
    X_U1.VN5    -2.604E-12
    X_U1.V4     -1.133E-11
    X_U1.V5      1.065E-11

    TOTAL POWER DISSIPATION   3.14E-02  WATTS


ERROR -- Convergence problem in transient analysis at Time =  1.500E-03
         Time step =  1.471E-15, minimum allowable step size =  3.000E-15



  Last node voltages tried were:

 NODE   VOLTAGE     NODE   VOLTAGE     NODE   VOLTAGE     NODE   VOLTAGE


( +12V)   12.0000  (X_U1.4)    2.1359 (X_U1.5)     .0071 (X_U1.6)     .0890     

(X_U1.7)    6.0760 (X_U1.8)   10.4400 (X_U1.9)    9.6169 ($N_0001)   11.2190    

($N_0002)   11.3170                   ($N_0003)    2.0000                       

($N_0004)    2.0000                   ($N_0005)    2.0000                       

($N_0006)    5.0958                   ($N_0007)   11.0740                       

($N_0008)    2.5228                   ($N_0009)    9.8163                       

(X_U1.10)    1.5600                   (X_U1.15)    9.4697                       

(X_U1.16)    6.9761                   (X_U1.17)    6.9763                       

(X_U1.18)    7.2177                   (X_U1.19)    7.6890                       

(X_U1.29)    5.8744                   (X_U1.30)   11.7870                       

(X_U1.31)   10.2470                   (X_U1.35)   11.4740                       

(X_U1.36)   12.0000                   (X_U1.37)    6.0000                       

(X_U1.38)    6.0000                   (X_U1.39)   11.0240                       

(X_U1.40)   11.0170                   (X_U1.49)    6.0000                       

(X_U1.96)    0.0000                   (X_U1.97)   12.0000                       

(X_U1.98)    6.0000                   (X_U1.115)   11.0170                      

(X_U1.120)   13.8190                  (X_U1.121)    8.6187                      

(X_U1.123)   11.0170                  (X_U1.124)   11.1940                      

(X_U1.125)   11.0170                  (X_U1.126)   11.8490                      

(X_U1.127)   10.5890                  (X_U1.129)   13.8190                      

(X_U1.130)    8.6187                  

