
**** 10/19/16 01:13:15 ********* PSpice 9.2 (Mar 2000) ******** ID# 1 ********

 ** Profile: "SCHEMATIC1-Bias"  [ D:\Radio\Devices\PS3608L\OrCad\rec-schematic1-bias.sim ] 


 ****     CIRCUIT DESCRIPTION


******************************************************************************




** Creating circuit file "rec-schematic1-bias.sim.cir" 
** WARNING: THIS AUTOMATICALLY GENERATED FILE MAY BE OVERWRITTEN BY SUBSEQUENT SIMULATIONS

*Libraries: 
* Local Libraries :
.LIB "C:\ProgramFiles\Orcad\Capture\Library\PSpice\OPAMP.OLB" 
.LIB "C:\ProgramFiles\Orcad\Capture\Library\PSpice\opamp.lib" 
* From [PSPICE NETLIST] section of c:\programfiles\Orcad\PSpice\PSpice.ini file:

*Analysis directives: 
.TRAN  0 1000ms 0 
.PROBE V(*) I(*) W(*) D(*) NOISE(*) 
.INC ".\rec-SCHEMATIC1.net" 



**** INCLUDING rec-SCHEMATIC1.net ****
* source REC
V_V1         N213700 0  
+SIN 0 10 50 0 0 0
R_R1         N213700 0  1k  

**** RESUMING rec-schematic1-bias.sim.cir ****
.END

**** 10/19/16 01:13:15 ********* PSpice 9.2 (Mar 2000) ******** ID# 1 ********

 ** Profile: "SCHEMATIC1-Bias"  [ D:\Radio\Devices\PS3608L\OrCad\rec-schematic1-bias.sim ] 


 ****     INITIAL TRANSIENT SOLUTION       TEMPERATURE =   27.000 DEG C


******************************************************************************



 NODE   VOLTAGE     NODE   VOLTAGE     NODE   VOLTAGE     NODE   VOLTAGE


(N213700)    0.0000                   




    VOLTAGE SOURCE CURRENTS
    NAME         CURRENT

    V_V1         0.000E+00

    TOTAL POWER DISSIPATION   0.00E+00  WATTS



          JOB CONCLUDED

          TOTAL JOB TIME             .02
