
**** 10/19/16 01:12:19 ********* PSpice 9.2 (Mar 2000) ******** ID# 1 ********

 ** Profile: "SCHEMATIC1-Bias"  [ D:\Radio\Devices\PS3608L\OrCad\rec-schematic1-bias.sim ] 


 ****     CIRCUIT DESCRIPTION


******************************************************************************




** Creating circuit file "rec-schematic1-bias.sim.cir" 
** WARNING: THIS AUTOMATICALLY GENERATED FILE MAY BE OVERWRITTEN BY SUBSEQUENT SIMULATIONS

*Libraries: 
* Local Libraries :
.LIB "C:\ProgramFiles\Orcad\Capture\Library\PSpice\OPAMP.OLB" 
.LIB "C:\ProgramFiles\Orcad\Capture\Library\PSpice\opamp.lib" 
* From [PSPICE NETLIST] section of c:\programfiles\Orcad\PSpice\PSpice.ini file:

*Analysis directives: 
.TRAN  0 1000ms 0 
.PROBE V(*) I(*) W(*) D(*) NOISE(*) 
.INC ".\rec-SCHEMATIC1.net" 



**** INCLUDING rec-SCHEMATIC1.net ****
* source REC
X_U7         0 0 0 0 0 LM139/TEMP 

**** RESUMING rec-schematic1-bias.sim.cir ****
.END

WARNING -- Two library files (opamp.lib and OPAMP.OLB)
used by this circuit have the same index file (OPAMP.ind).
Library files in the same directory should not have the same name
with different extensions
ERROR -- Subcircuit LM139/TEMP is undefined