
**** 08/07/16 22:53:09 ********* PSpice 9.2 (Mar 2000) ******** ID# 1 ********

 ** Profile: "SCHEMATIC1-Bias"  [ D:\Radio\Devices\PS3608L\OrCad\reg-schematic1-bias.sim ] 


 ****     CIRCUIT DESCRIPTION


******************************************************************************




** Creating circuit file "reg-schematic1-bias.sim.cir" 
** WARNING: THIS AUTOMATICALLY GENERATED FILE MAY BE OVERWRITTEN BY SUBSEQUENT SIMULATIONS

*Libraries: 
* Local Libraries :
* From [PSPICE NETLIST] section of c:\programfiles\Orcad\PSpice\PSpice.ini file:
.lib "nom.lib" 

*Analysis directives: 
.OP
.PROBE V(*) I(*) W(*) D(*) NOISE(*) 
.INC ".\reg-SCHEMATIC1.net" 



**** INCLUDING reg-SCHEMATIC1.net ****
* source REG
V_VCC         VCC 0 50Vdc

**** RESUMING reg-schematic1-bias.sim.cir ****
.END

**** 08/07/16 22:53:09 ********* PSpice 9.2 (Mar 2000) ******** ID# 1 ********

 ** Profile: "SCHEMATIC1-Bias"  [ D:\Radio\Devices\PS3608L\OrCad\reg-schematic1-bias.sim ] 


 ****     SMALL SIGNAL BIAS SOLUTION       TEMPERATURE =   27.000 DEG C


******************************************************************************



 NODE   VOLTAGE     NODE   VOLTAGE     NODE   VOLTAGE     NODE   VOLTAGE


(  VCC)   50.0000  




    VOLTAGE SOURCE CURRENTS
    NAME         CURRENT

    V_VCC        0.000E+00

    TOTAL POWER DISSIPATION   0.00E+00  WATTS


**** 08/07/16 22:53:09 ********* PSpice 9.2 (Mar 2000) ******** ID# 1 ********

 ** Profile: "SCHEMATIC1-Bias"  [ D:\Radio\Devices\PS3608L\OrCad\reg-schematic1-bias.sim ] 


 ****     OPERATING POINT INFORMATION      TEMPERATURE =   27.000 DEG C


******************************************************************************





          JOB CONCLUDED

          TOTAL JOB TIME            0.00
