
**** 10/13/16 02:21:50 ********* PSpice 9.2 (Mar 2000) ******** ID# 1 ********

 ** Profile: "SCHEMATIC1-simpro"  [ d:\radio\devices\ps3608l\orcad\reg-schematic1-simpro.sim ] 


 ****     CIRCUIT DESCRIPTION


******************************************************************************




** Creating circuit file "reg-schematic1-simpro.sim.cir" 
** WARNING: THIS AUTOMATICALLY GENERATED FILE MAY BE OVERWRITTEN BY SUBSEQUENT SIMULATIONS

*Libraries: 
* Local Libraries :
* From [PSPICE NETLIST] section of c:\programfiles\Orcad\PSpice\PSpice.ini file:
.lib "nom.lib" 

*Analysis directives: 
.TRAN  0 10000ns 0 .001 
.PROBE V(*) I(*) W(*) D(*) NOISE(*) 
.INC ".\reg-SCHEMATIC1.net" 



**** INCLUDING reg-SCHEMATIC1.net ****
* source REG
V_VCC         VCC 0 50Vdc

**** RESUMING reg-schematic1-simpro.sim.cir ****
.END

**** 10/13/16 02:21:50 ********* PSpice 9.2 (Mar 2000) ******** ID# 1 ********

 ** Profile: "SCHEMATIC1-simpro"  [ d:\radio\devices\ps3608l\orcad\reg-schematic1-simpro.sim ] 


 ****     INITIAL TRANSIENT SOLUTION       TEMPERATURE =   27.000 DEG C


******************************************************************************



 NODE   VOLTAGE     NODE   VOLTAGE     NODE   VOLTAGE     NODE   VOLTAGE


(  VCC)   50.0000  




    VOLTAGE SOURCE CURRENTS
    NAME         CURRENT

    V_VCC        0.000E+00

    TOTAL POWER DISSIPATION   0.00E+00  WATTS



          JOB CONCLUDED

          TOTAL JOB TIME             .02
