
**** 10/18/16 22:43:16 ********* PSpice 9.2 (Mar 2000) ******** ID# 1 ********

 ** Profile: "SCHEMATIC1-Bias"  [ d:\radio\devices\ps3608l\orcad\str-schematic1-bias.sim ] 


 ****     CIRCUIT DESCRIPTION


******************************************************************************




** Creating circuit file "str-schematic1-bias.sim.cir" 
** WARNING: THIS AUTOMATICALLY GENERATED FILE MAY BE OVERWRITTEN BY SUBSEQUENT SIMULATIONS

*Libraries: 
* Local Libraries :
* From [PSPICE NETLIST] section of c:\programfiles\Orcad\PSpice\PSpice.ini file:

*Analysis directives: 
.TRAN  0 1000ms 0 
.PROBE V(*) I(*) W(*) D(*) NOISE(*) 
.INC ".\str-SCHEMATIC1.net" 



**** INCLUDING str-SCHEMATIC1.net ****
* source STR
R_R3         N14077 N08236  10k  
V_V1         N08236 N04459  
+SIN 0 10 1000 0 0 0
R_R7         N08592  4.7k  
---------------------------$
ERROR -- Missing model
V_V3         N08592 N08236 15Vdc
R_R1         N08236 N13968  10k  
R_R4         N08236 N14077  10k  
C_C1         N04459 N08236  4700u  

**** RESUMING str-schematic1-bias.sim.cir ****
.END
